/*--------------------------------*- C++ -*----------------------------------*\
  =========                 |
  \\      /  F ield         | OpenFOAM: The Open Source CFD Toolbox
   \\    /   O peration     | Website:  https://openfoam.org
    \\  /    A nd           | Version:  8
     \\/     M anipulation  |
\*---------------------------------------------------------------------------*/
FoamFile
{
    version     2.0;
    format      ascii;
    class       volScalarField;
    object      p;
}
// * * * * * * * * * * * * * * * * * * * * * * * * * * * * * * * * * * * * * //

#include "$FOAM_CASE/include/input"

dimensions      [0 2 -2 0 0 0 0];

internalField   uniform $internal_p;

boundaryField
{
    top-wall
    {
        type            zeroGradient;
    }
    side-wall
    {
        type            zeroGradient;
    }
    bottom-wall
    {
        type            zeroGradient;
    }
    baffles
    {
        type            zeroGradient;
    }
    inlet-tubes
    {
        type            zeroGradient;
    }
    impeller
    {
        type            zeroGradient;
    }
    shaft
    {
        type            zeroGradient;
    }

    inlet-metal
    {
        type            zeroGradient;
    }
    inlet-naoh
    {
        type            zeroGradient;
    }
    inlet-nh3
    {
        type            zeroGradient;
    }

    outlet
    {
        type            fixedMean;
        meanValue       uniform 0;
        value           uniform 0;
        // type            totalPressure;
        // p0              uniform $outlet_pressure;
    }
}


// ************************************************************************* //
