/*--------------------------------*- C++ -*----------------------------------*\
  =========                 |
  \\      /  F ield         | OpenFOAM: The Open Source CFD Toolbox
   \\    /   O peration     | Website:  https://openfoam.org
    \\  /    A nd           | Version:  8
     \\/     M anipulation  |
\*---------------------------------------------------------------------------*/
FoamFile
{
    version     2.0;
    format      ascii;
    class       dictionary;
    location    "constant";
    object      micromixing;
}
// * * * * * * * * * * * * * * * * * * * * * * * * * * * * * * * * * * * * * //

#include "$FOAM_CASE/include/input"

numPureEnv    3;

componentFeedConc ($conc_in_nickel $conc_in_manganese $conc_in_cobalt
    $conc_in_nh3 $conc_in_na $conc_in_so4);

correctionCoeff     1.0;

turbulentSchmidt    1.0;

// ************************************************************************* //

