/*--------------------------------*- C++ -*----------------------------------*\
  =========                 |
  \\      /  F ield         | OpenFOAM: The Open Source CFD Toolbox
   \\    /   O peration     | Website:  https://openfoam.org
    \\  /    A nd           | Version:  8
     \\/     M anipulation  |
\*---------------------------------------------------------------------------*/
FoamFile
{
    version     2.0;
    format      ascii;
    class       dictionary;
    location    "constant";
    object      pbProperties;
}
// * * * * * * * * * * * * * * * * * * * * * * * * * * * * * * * * * * * * * //

#include "$FOAM_CASE/include/input"

populationBalance       on;

highOrderScheme          off;

numOfNodes              2;

alphaMin                1e-20;

dSmall
List<scalar>
(
    1e-20 1e-20
);

quadrature
{
    type                QMOM;
    inversionAlgorithm  adaptiveWheeler;
}

coordinates
{
    numOfCoordinates    1;
}

crystalProperties
{
    crystalDensity      $crystal_density;
    crystalMW           $crystal_MW;
}

sources
{
    growth
    {
        type                   "powerLaw"; // powerLaw, constantRate
        k                       7e-8;
        n                       1;
        // G0                      1e-4;
    }

    nucleation
    {
        type                    "powerLaw"; // powerLaw, constantRate
        k                       3;
        n                       5;
        // J0                      1e10;
        
        nucleateSize
        {
            type                "fixed";
            Xc                  1e-9;
        }
    }

    coalescence
    {
        Brownian
        {
            type             "brownianMotion";
            T                298;
            rhoLiq           $liquid_density;

            efficiency
            {
                type         "bridgeFormation";
                A            2e6;
                rhoLiq       $liquid_density;
            }
        }

        TurbFluct
        {
            type             "turbulentCollision";
            CT               8;

            efficiency
            {
                type         "bridgeFormation";
                A            2e6;
                rhoLiq       $liquid_density;
            }
        }
    }

    breakage
    {
        // TurbFluct
        // {
        //     type             "";

        //     daughterDistribution
        //     {
        //         type         "";
        //     }
        // }
    }
}

// ************************************************************************* //

