/*--------------------------------*- C++ -*----------------------------------*\
  =========                 |
  \\      /  F ield         | OpenFOAM: The Open Source CFD Toolbox
   \\    /   O peration     | Website:  https://openfoam.org
    \\  /    A nd           | Version:  8
     \\/     M anipulation  |
\*---------------------------------------------------------------------------*/
FoamFile
{
    version     2.0;
    format      ascii;
    class       dictionary;
    location    "system";
    object      fvSolution;
}
// * * * * * * * * * * * * * * * * * * * * * * * * * * * * * * * * * * * * * //

solvers
{
    p
    {
        solver          GAMG;
        smoother        GaussSeidel;
        tolerance       1e-08;  // 1e-6 (last attempt to do)
        relTol          0.01; // check it for steady-state solver
        nCellsInCoarsestLevel 500;
    }

    "(U|k|epsilon|omega)"
    {
        solver          smoothSolver;
        smoother        GaussSeidel;
        nSweeps         2;
        tolerance       1e-07;
        relTol          0.01;
    }

    "p_env[1-3]"
    {
        solver          GAMG;
        smoother        GaussSeidel;
        tolerance       1e-8;  // 1e-6 (last attempt to do)
        relTol          0.0; // check it for steady-state solver
        nCellsInCoarsestLevel 500;
        minIter         1;
        // solver          smoothSolver;
        // smoother        symGaussSeidel;
        // tolerance       1e-10;
        // relTol          0;
        // minIter         1;
    }
}


SIMPLE
{
    nNonOrthogonalCorrectors 2;
    consistent      no;

    // pRefPoint (0.05 0.05 0.149);
    // pRefValue 0;

    CFD             false;
    micromixing     true;

    residualControl
    {
        // p               1e-6;
        // U               1e-6;
        // "(k|epsilon|omega)" 1e-6;
        "p_env[1-3]"  1e-15;
    }
}

relaxationFactors
{
    fields
    {
        p               0.3;
    }
    equations
    {
        U               0.5; // 0.9 is more stable but 0.95 more convergent
        k               0.5;
        epsilon         0.5;

        "p_env[1-3]"    0.3;
    }
}


// ************************************************************************* //
