/*--------------------------------*- C++ -*----------------------------------*\
  =========                 |
  \\      /  F ield         | OpenFOAM: The Open Source CFD Toolbox
   \\    /   O peration     | Website:  https://openfoam.org
    \\  /    A nd           | Version:  8
     \\/     M anipulation  |
\*---------------------------------------------------------------------------*/
FoamFile
{
    version     2.0;
    format      ascii;
    class       dictionary;
    location    "constant";
    object      solutionProperties;
}
// * * * * * * * * * * * * * * * * * * * * * * * * * * * * * * * * * * * * * //

metals (Nickel Manganese Cobalt);

turbulentSchmidt        1;
molecularDiffusivity    (2e-9 2e-9 2e-9 2e-9 2e-9);

chemicallyInactiveRegions ();

smallConc       1e-14;

effectiveConc   1e-6;

newtonRaphson
{
    maxIter     200; 
    tol         1e-12;
}

// ************************************************************************* //

