/*--------------------------------*- C++ -*----------------------------------*\
  =========                 |
  \\      /  F ield         | OpenFOAM: The Open Source CFD Toolbox
   \\    /   O peration     | Website:  https://openfoam.org
    \\  /    A nd           | Version:  8
     \\/     M anipulation  |
\*---------------------------------------------------------------------------*/
FoamFile
{
    version     2.0;
    format      ascii;
    class       volScalarField;
    object      M0;
}
// * * * * * * * * * * * * * * * * * * * * * * * * * * * * * * * * * * * * * //

#include "$FOAM_CASE/include/input"

dimensions      [0 -3 0 0 0 0 0];

internalField   uniform 0;

boundaryField
{
    wall
    {
        type            zeroGradient;
    }

    inlet-metal
    {
        type            fixedValue;
        value           uniform 0;
    }
    inlet-naoh
    {
        type            fixedValue;
        value           uniform 0;
    }
    inlet-nh3
    {
        type            fixedValue;
        value           uniform 0;
    }
    
    outlet
    {
        type            zeroGradient;
    }
}

// ************************************************************************* //
