/*--------------------------------*- C++ -*----------------------------------*\
  =========                 |
  \\      /  F ield         | OpenFOAM: The Open Source CFD Toolbox
   \\    /   O peration     | Website:  https://openfoam.org
    \\  /    A nd           | Version:  8
     \\/     M anipulation  |
\*---------------------------------------------------------------------------*/
FoamFile
{
    version     2.0;
    format      ascii;
    class       volScalarField;
    object      p;
}
// * * * * * * * * * * * * * * * * * * * * * * * * * * * * * * * * * * * * * //

#include "$FOAM_CASE/include/input"

dimensions      [0 2 -2 0 0 0 0];

internalField   uniform $internal_p;

boundaryField
{
    pitchbladewalls
    {
        type            zeroGradient;
    }
    rushtonwalls
    {
        type            zeroGradient;
    }
    reactorwalls
    {
        type            zeroGradient;
    }
    overflowwalls
    {
        type            zeroGradient;
    }
    connectingtube
    {
        type            zeroGradient;
    }
    inlet1
    {
        type            zeroGradient;
    }
    inlet-nh3
    {
        type            zeroGradient;
    }
    inlet-naoh
    {
        type            zeroGradient;
    }
    inlet-metals
    {
        type            zeroGradient;
    }
    injectionpipeswalls
    {
        type            zeroGradient;
    }
    outlet
    {
        type            fixedValue;
        value           uniform 0;
        // type            totalPressure;
        // p0              uniform $outlet_pressure;
    }
    top-and-baffles
    {
        type            zeroGradient;
    }
    shaft
    {
        type            zeroGradient;
    }
}


// ************************************************************************* //
