/*--------------------------------*- C++ -*----------------------------------*\
  =========                 |
  \\      /  F ield         | OpenFOAM: The Open Source CFD Toolbox
   \\    /   O peration     | Website:  https://openfoam.org
    \\  /    A nd           | Version:  8
     \\/     M anipulation  |
\*---------------------------------------------------------------------------*/
FoamFile
{
    version     2.0;
    format      ascii;
    class       dictionary;
    location    "system";
    object      setFieldsDict;
}
// * * * * * * * * * * * * * * * * * * * * * * * * * * * * * * * * * * * * * //

#include "$FOAM_CASE/include/input"

defaultFieldValues
(
    volScalarFieldValue p_env1 0.0
    volScalarFieldValue p_env2 0.0
    volScalarFieldValue p_env3 0.0
);

regions
(
    cylinderToCell
    {
        p1 (0.023 0.023 0.032);
        p2 (0.023 0.023 0.0471);
        radius 0.00151;
        fieldValues
        (
            volScalarFieldValue p_env1 1.0
            volScalarFieldValue p_env2 0.0
            volScalarFieldValue p_env3 0.0
        );
    }

    cylinderToCell
    {
        p1 (-0.023 -0.023 0.032);
        p2 (-0.023 -0.023 0.0471);
        radius 0.00151;
        fieldValues
        (
            volScalarFieldValue p_env1 0.0
            volScalarFieldValue p_env2 0.0
            volScalarFieldValue p_env3 1.0
        );
    }

    cylinderToCell
    {
        p1 (-0.023 0.023 0.032);
        p2 (-0.023 0.023 0.0471);
        radius 0.00151;
        fieldValues
        (
            volScalarFieldValue p_env1 0.0
            volScalarFieldValue p_env2 1.0
            volScalarFieldValue p_env3 0.0
        );
    }

    // cellToCell
    // {
    //     set region_active;
    //     fieldValues
    //     (
    //         
    //     );
    // }
);


// ************************************************************************* //
