/*--------------------------------*- C++ -*----------------------------------*\
  =========                 |
  \\      /  F ield         | OpenFOAM: The Open Source CFD Toolbox
   \\    /   O peration     | Website:  https://openfoam.org
    \\  /    A nd           | Version:  8
     \\/     M anipulation  |
\*---------------------------------------------------------------------------*/
FoamFile
{
    version     2.0;
    format      ascii;
    class       dictionary;
    location    "system";
    object      fvSolution;
}
// * * * * * * * * * * * * * * * * * * * * * * * * * * * * * * * * * * * * * //

solvers
{
    p
    {
        solver          GAMG;
        smoother        GaussSeidel;
        tolerance       1e-08;  // 1e-6 (last attempt to do)
        relTol          0.01; // check it for steady-state solver
        nCellsInCoarsestLevel 500;
    }

    pFinal
    {
        $p;
        // tolerance       1e-08;
        // relTol          0;
    }

    "p_env[1-3]"
    {
        solver          GAMG;
        smoother        GaussSeidel;
        tolerance       1e-08;  // 1e-6 (last attempt to do)
        relTol          0.0; // check it for steady-state solver
        nCellsInCoarsestLevel 500;
        minIter         1;
    }

    total_NH3
    {
        solver          GAMG;
        smoother        GaussSeidel;
        tolerance       1e-08;  // 1e-6 (last attempt to do)
        relTol          0.0; // check it for steady-state solver
        nCellsInCoarsestLevel 500;
        minIter         1;
        // solver          smoothSolver;
        // smoother        GaussSeidel;
        // tolerance       1e-7;
        // relTol          0;
        // minIter         1;
    }

    "total_(Nickel|Manganese|Cobalt)"
    {
        $total_NH3;
    }

    "total_(Na|SO4)"
    {
        $total_NH3;
    }

    "(M0|M1|M2|M3|M4|M5)"
    {
        solver          GAMG;
        smoother        GaussSeidel;
        tolerance       1e-12;  // 1e-6 (last attempt to do)
        relTol          0.0; // check it for steady-state solver
        nCellsInCoarsestLevel 500;
        minIter         1;
        // solver          smoothSolver;
        // smoother        symGaussSeidel;
        // tolerance       1e-10;
        // relTol          0;
        // minIter         1;
    }

    "(U|k|epsilon|omega)"
    {
        solver          smoothSolver;
        smoother        GaussSeidel;
        nSweeps         2;
        tolerance       1e-07;
        relTol          0.01;
    }
}


PISO
{
    nCorrectors     2;
    nNonOrthogonalCorrectors 2;
    CFD             true;
    precipitation   false;
    pRefCell        0;
    pRefValue       0;

    residualControl
    {
        p               1e-6;
        U               1e-6;
        "(k|epsilon|omega)" 1e-6;
    }
}

RELAX_FACTOR    1.0;

relaxationFactors
{
    fields
    {
        p               0.3;
    }
    equations
    {
        U               0.5; // 0.9 is more stable but 0.95 more convergent
        k               0.5;
        epsilon         0.5;

        // "(M0|M1|M2|M3|M4|M5)"            $RELAX_FACTOR;
        // "total_(Nickel|Manganese|Cobalt|NH3|Na|SO4)"   $RELAX_FACTOR;
    }
}

// ************************************************************************* //
