/*--------------------------------*- C++ -*----------------------------------*\
  =========                 |
  \\      /  F ield         | OpenFOAM: The Open Source CFD Toolbox
   \\    /   O peration     | Website:  https://openfoam.org
    \\  /    A nd           | Version:  8
     \\/     M anipulation  |
\*---------------------------------------------------------------------------*/
FoamFile
{
    version     2.0;
    format      ascii;
    class       dictionary;
    location    "system";
    object      controlDict;
}
// * * * * * * * * * * * * * * * * * * * * * * * * * * * * * * * * * * * * * //

#include "$FOAM_CASE/include/input"

application     pisoPrecNMC;

startFrom       latestTime;

startTime       0;

stopAt          endTime;

endTime         $end_time;

deltaT          1e-3;

writeControl    runTime;

writeInterval   1;

purgeWrite      0;

writeFormat     binary;

writePrecision  6;

writeCompression off;

timeFormat      general;

timePrecision   6;

runTimeModifiable true;

functions
{
    // #includeFunc  residuals_CFD
    #includeFunc  residuals

    timeStepUpdate
    {
        type              timeActivatedFileUpdate;
        libs              ("libutilityFunctionObjects.so");
        fileToUpdate      "$FOAM_CASE/system/controlDict";
        timeVsFile
        (
            // (-1 "$FOAM_CASE/system/updatingFiles/controlDict.cfd") 
            (-1 "$FOAM_CASE/system/updatingFiles/controlDict.0") // 1e-5 x 1000 = 0.01
            ($t3 "$FOAM_CASE/system/updatingFiles/controlDict.1") // 5e-5 x 1000 = 0.05
            ($t4 "$FOAM_CASE/system/updatingFiles/controlDict.2") // 1e-4 x 1400 = 0.14
            ($t5 "$FOAM_CASE/system/updatingFiles/controlDict.3") // 5e-4 x 1600 = 0.8
            ($t6 "$FOAM_CASE/system/updatingFiles/controlDict.4") // 1e-3 x 2000 = 2
            ($t7 "$FOAM_CASE/system/updatingFiles/controlDict.5") // 5e-3 x 2000 = 10
            ($t8 "$FOAM_CASE/system/updatingFiles/controlDict.6") // 1e-2 x 2200 = 22
            ($t9 "$FOAM_CASE/system/updatingFiles/controlDict.7") // 2e-2 x 2500 = 50
            ($t10 "$FOAM_CASE/system/updatingFiles/controlDict.8") // 4e-2 x 4125 = 165
            ($t11 "$FOAM_CASE/system/updatingFiles/controlDict.9") // 6e-2 x 5000 = 300
            ($t12 "$FOAM_CASE/system/updatingFiles/controlDict.10") // 8e-2 x 5625 = 450
            ($t13 "$FOAM_CASE/system/updatingFiles/controlDict.11") // 1e-1
        );
    }

    odeSolverUpdate
    {
        type              timeActivatedFileUpdate;
        libs              ("libutilityFunctionObjects.so");
        fileToUpdate      "$FOAM_CASE/constant/odeSolver";
        timeVsFile
        (
            (-1 "$FOAM_CASE/constant/updatingFiles/odeSolver.0") // 1e-6
            ($t3 "$FOAM_CASE/constant/updatingFiles/odeSolver.1") // 5e-6
            ($t4 "$FOAM_CASE/constant/updatingFiles/odeSolver.2") // 1e-5
            ($t5 "$FOAM_CASE/constant/updatingFiles/odeSolver.3") // 5e-5
            ($t6 "$FOAM_CASE/constant/updatingFiles/odeSolver.4") // 1e-4
            ($t7 "$FOAM_CASE/constant/updatingFiles/odeSolver.5") // 5e-4
            ($t8 "$FOAM_CASE/constant/updatingFiles/odeSolver.6") // 1e-3
            // ($t9 "$FOAM_CASE/constant/updatingFiles/odeSolver.7") // 2e-3
            // ($t10 "$FOAM_CASE/constant/updatingFiles/odeSolver.8") // 4e-3
            // ($t11 "$FOAM_CASE/constant/updatingFiles/odeSolver.9") // 6e-3
            // ($t12 "$FOAM_CASE/constant/updatingFiles/odeSolver.10") // 8e-3
            ($t13 "$FOAM_CASE/constant/updatingFiles/odeSolver.11") // 1e-2
        );
    }

    // fvSolutionUpdate
    // {
    //     type              timeActivatedFileUpdate;
    //     libs              ("libutilityFunctionObjects.so");
    //     fileToUpdate      "$FOAM_CASE/system/fvSolution";
    //     timeVsFile
    //     (
    //         (-1 "$FOAM_CASE/system/updatingFiles/fvSolution.0") // 1e-6
    //         ($t2 "$FOAM_CASE/system/updatingFiles/fvSolution.1") // 5e-6
    //     );
    // }

    // schemeChange
    // {
    //     type              timeActivatedFileUpdate;
    //     libs              ("libutilityFunctionObjects.so");
    //     fileToUpdate      "$FOAM_CASE/system/fvSchemes";
    //     timeVsFile
    //     (
    //         (-1 "$FOAM_CASE/system/updatingFiles/fvSchemes.0")
    //         ($t0 "$FOAM_CASE/system/updatingFiles/fvSchemes.1")
    //         ($t1 "$FOAM_CASE/system/updatingFiles/fvSchemes.2")
    //     );
    // }

    // dissVolAverage
    // {
    //     type            volFieldValue;
    //     libs            ("libfieldFunctionObjects.so");

    //     log             false;
    //     writeControl      timeStep;
    //     writeInterval     $write_interval;
    //     writeFields     false;

    //     regionType      all;
    //     // name            c0;
    //     operation       volAverage;

    //     // weightField     alpha1;

    //     fields
    //     (
    //         epsilon
    //     );
    // }

    // outflow
    // {
    //     type            surfaceFieldValue;
    //     libs            ("libfieldFunctionObjects.so");

    //     log             true;
    //     writeControl      timeStep;
    //     writeInterval     $write_interval;
    //     writeFields     false;

    //     surfaceFormat   none;
    //     regionType      patch;
    //     name            outlet;

    //     operation       sum;

    //     // weightField     alpha1;

    //     fields
    //     (
    //         phi
    //     );
    // }

    volume_average
    {
        type            volFieldValue;
        libs            ("libfieldFunctionObjects.so");

        log             false;
        writeControl      timeStep;
        writeInterval     $write_interval;
        writeFields     false;

        regionType      all;
        // name            c0;
        operation       volAverage;

        // weightField     alpha1;

        fields
        (
            total_Na
            total_SO4
            M3
        );
    }

    outlet_average
    {
        type            surfaceFieldValue;
        libs            ("libfieldFunctionObjects.so");

        log             false;
        writeControl      timeStep;
        writeInterval     $write_interval;
        writeFields     false;

        surfaceFormat   none;
        regionType      patch;
        name            outlet;

        operation       areaAverage;

        // weightField     alpha1;

        fields
        (
            M0 M1 M2 M3
        );
    }
}

// ************************************************************************* //
