/*--------------------------------*- C++ -*----------------------------------*\
  =========                 |
  \\      /  F ield         | OpenFOAM: The Open Source CFD Toolbox
   \\    /   O peration     | Website:  https://openfoam.org
    \\  /    A nd           | Version:  8
     \\/     M anipulation  |
\*---------------------------------------------------------------------------*/
FoamFile
{
    version     2.0;
    format      ascii;
    class       dictionary;
    location    "constant";
    object      solutionProperties;
}
// * * * * * * * * * * * * * * * * * * * * * * * * * * * * * * * * * * * * * //

relTol      1e-6;

absTol      1e-8;
// absTol      (1e-8 1e-8 1e-8 1e-8 1e-8 1e-8 1e-8 1e-8 1e-8);

initialStepSize     1e-10;

maxStepSize         1e-4;

// ************************************************************************* //

